Molecule 1
  DSViewer          3D                             0

 14 13  0  0  0  0  0  0  0  0999 V2000
   -9.4118    3.1176    0.0000 C   0  0
   -7.8720    3.0880    0.0000 C   0  0
   -9.7558    4.1519   -0.0000 H   0  0
   -9.7854    2.6110    0.8899 H   0  0
   -9.7854    2.6110   -0.8899 H   0  0
   -6.3612    2.7899    0.0000 C   0  0
   -7.8049    3.7135   -0.8901 H   0  0
   -7.8049    3.7135    0.8901 H   0  0
   -4.9073    2.2823   -0.0000 C   0  0
   -6.1962    3.3970   -0.8901 H   0  0
   -6.1962    3.3970    0.8901 H   0  0
   -4.2251    3.1323    0.0000 H   0  0
   -4.7331    1.6773   -0.8899 H   0  0
   -4.7331    1.6773    0.8899 H   0  0
  1  2  1  0  0  0
  1  3  1  0  0  0
  1  4  1  0  0  0
  1  5  1  0  0  0
  2  6  1  0  0  0
  2  7  1  0  0  0
  2  8  1  0  0  0
  6  9  1  0  0  0
  6 10  1  0  0  0
  6 11  1  0  0  0
  9 12  1  0  0  0
  9 13  1  0  0  0
  9 14  1  0  0  0
M  END
$$$$
