Molecule
  DSViewer          3D                             0

 23 22  0  0  0  0  0  0  0  0999 V2000
    7.2730   -0.7809    1.1490 N   0  3
    7.1618   -0.3137   -0.2253 C   0  0  2  0  0  0
    7.3507    1.2002   -0.3592 C   0  0
    7.5596    1.8179    0.6266 O   0  0
    5.7455   -0.6891   -0.7192 C   0  0
    7.9036   -0.8241   -0.8396 H   0  0
    5.6192   -0.3559   -1.7493 H   0  0
    5.0000   -0.2060   -0.0876 H   0  0
    5.6176   -1.7705   -0.6694 H   0  0
    7.1325   -1.8412    1.1782 H   0  0
    6.5254   -0.3059    1.7493 H   0  0
    8.2430   -0.5395    1.5309 H   0  0
    7.2832    1.8043   -1.5365 N   0  0
    7.4492    3.2327   -1.7637 C   0  0  2  0  0  0
    7.3146    3.6231   -3.2385 C   0  0
    7.0903    2.7264   -4.0500 O   0  0
    8.8658    3.6091   -1.2714 C   0  0
    7.4382    4.8117   -3.5297 O   0  0
    7.0974    1.3136   -2.4691 H   0  0
    6.7087    3.7781   -1.1786 H   0  0
    9.0325    4.6754   -1.4237 H   0  0
    9.6085    3.0419   -1.8324 H   0  0
    8.9562    3.3756   -0.2105 H   0  0
  1  2  1  0  0  0
  2  3  1  0  0  0
  3  4  2  0  0  0
  2  5  1  0  0  0
  2  6  1  0  0  0
  5  7  1  0  0  0
  5  8  1  0  0  0
  5  9  1  0  0  0
  1 10  1  0  0  0
  1 11  1  0  0  0
  1 12  1  0  0  0
 13 14  1  0  0  0
 14 15  1  0  0  0
 15 16  4  0  0  0
 14 17  1  0  0  0
 14 20  1  0  0  0
 17 21  1  0  0  0
 17 22  1  0  0  0
 17 23  1  0  0  0
 13 19  1  0  0  0
 15 18  4  0  0  0
  3 13  1  0  0  0
M  CHG  1   1   1
M  END
> <Atoms with fractional formal charges>
16 -1/2
18 -1/2

$$$$
