Molecule
  DSViewer          3D                             0

 17 16  0  0  0  0  0  0  0  0999 V2000
    6.1001   -0.7809    0.9397 N   0  3
    5.9889   -0.3137   -0.4346 C   0  0
    6.1778    1.2002   -0.5685 C   0  0
    6.3866    1.8179    0.4174 O   0  0
    6.7502   -0.8131   -1.0339 H   0  0
    5.0000   -0.5750   -0.8113 H   0  0
    5.9596   -1.8412    0.9690 H   0  0
    5.3525   -0.3059    1.5400 H   0  0
    7.0700   -0.5395    1.3216 H   0  0
    6.1103    1.8043   -1.7458 N   0  0
    6.2762    3.2327   -1.9729 C   0  0
    6.1416    3.6231   -3.4477 C   0  0
    5.9174    2.7264   -4.2592 O   0  0
    6.2653    4.8117   -3.7389 O   0  0
    5.9245    1.3136   -2.6783 H   0  0
    5.5162    3.7658   -1.4018 H   0  0
    7.2662    3.5271   -1.6247 H   0  0
  1  2  1  0  0  0
  2  3  1  0  0  0
  3  4  2  0  0  0
  2  5  1  0  0  0
  2  6  1  0  0  0
  1  7  1  0  0  0
  1  8  1  0  0  0
  1  9  1  0  0  0
 10 11  1  0  0  0
 11 12  1  0  0  0
 12 13  4  0  0  0
 11 16  1  0  0  0
 11 17  1  0  0  0
 10 15  1  0  0  0
 12 14  4  0  0  0
  3 10  1  0  0  0
M  CHG  1   1   1
M  END
> <Atoms with fractional formal charges>
13 -1/2
14 -1/2

$$$$
