Molecule 1
  DSViewer          3D                             0

  8  7  0  0  0  0  0  0  0  0999 V2000
   -6.6471   -0.2353    0.0000 C   0  0
   -5.1071   -0.2353    0.0000 C   0  0
   -4.7432   -1.2627    0.0000 H   0  0
   -4.7432    0.2784    0.8899 H   0  0
   -4.7432    0.2784   -0.8899 H   0  0
   -7.0109    0.7921    0.0000 H   0  0
   -7.0109   -0.7490    0.8899 H   0  0
   -7.0109   -0.7490   -0.8899 H   0  0
  1  2  1  0  0  0
  2  3  1  0  0  0
  2  4  1  0  0  0
  2  5  1  0  0  0
  1  6  1  0  0  0
  1  7  1  0  0  0
  1  8  1  0  0  0
M  END
$$$$
