Molecule
  DSViewer          3D                             0

 96 97  0  0  0  0  0  0  0  0999 V2000
    8.8859    0.1408    1.6839 N   0  3
    8.7747    0.6080    0.3096 C   0  0  2  0  0  0
    8.9636    2.1219    0.1757 C   0  0
    9.1725    2.7397    1.1615 O   0  0
    7.3581    0.2219   -0.2043 C   0  0  2  0  0  0
    7.1560   -1.3027   -0.0870 C   0  0
    7.1999    0.6440   -1.6781 C   0  0
    5.7453   -1.6848   -0.5723 C   0  0
    9.5236    0.1015   -0.2993 H   0  0
    6.6061    0.7315    0.3981 H   0  0
    7.8991   -1.8135   -0.6993 H   0  0
    7.2734   -1.6034    0.9541 H   0  0
    6.2055    0.3702   -2.0303 H   0  0
    7.9515    0.1381   -2.2842 H   0  0
    7.3308    1.7228   -1.7637 H   0  0
    5.6106   -2.7629   -0.4863 H   0  0
    5.6255   -1.3861   -1.6138 H   0  0
    5.0000   -1.1761    0.0391 H   0  0
    8.7454   -0.9195    1.7131 H   0  0
    8.1383    0.6159    2.2842 H   0  0
    9.8559    0.3822    2.0658 H   0  0
    8.8961    2.7261   -1.0016 N   0  0
    9.0621    4.1544   -1.2288 C   0  0  2  0  0  0
    8.9275    4.5449   -2.7036 C   0  0
    8.7112    3.6832   -3.4833 O   0  0
   10.4792    4.5487   -0.7226 C   0  0  2  0  0  0
   10.6270    4.1725    0.7659 C   0  0
   10.6934    6.0661   -0.8873 C   0  0
   12.0376    4.5394    1.2632 C   0  0
    8.7103    2.2353   -1.9342 H   0  0
    8.3145    4.6954   -0.6486 H   0  0
   11.2302    4.0145   -1.3046 H   0  0
    9.8852    4.7159    1.3511 H   0  0
   10.4700    3.1004    0.8846 H   0  0
   11.6879    6.3339   -0.5306 H   0  0
    9.9431    6.6044   -0.3082 H   0  0
   10.6010    6.3344   -1.9397 H   0  0
   12.1339    4.2706    2.3151 H   0  0
   12.1970    5.6114    1.1467 H   0  0
   12.7816    3.9964    0.6803 H   0  0
    9.0487    5.8034   -3.0999 N   0  0
    8.9369    6.2707   -4.4741 C   0  0  2  0  0  0
    9.1265    7.7845   -4.6081 C   0  0
    9.3363    8.4021   -3.6224 O   0  0
    7.5502    6.0803   -5.1752 C   0  0
    7.1188    4.6630   -5.4246 C   0  0
    6.0641    4.3426   -6.1649 N   0  0
    7.7372    3.5094   -4.9699 C   0  0
    5.9887    3.0153   -6.1936 C   0  0
    6.9953    2.5292   -5.4737 N   0  0
    9.2447    6.6344   -2.4549 H   0  0
    9.6991    5.7718   -5.0727 H   0  0
    6.7937    6.5520   -4.5481 H   0  0
    7.5929    6.5886   -6.1385 H   0  0
    5.3981    5.0260   -6.6489 H   0  0
    8.6259    3.4256   -4.3443 H   0  0
    5.2334    2.4282   -6.7161 H   0  0
    9.0586    8.3887   -5.7854 N   0  0
    9.2251    9.8169   -6.0126 C   0  0  2  0  0  0
    9.0898   10.2075   -7.4873 C   0  0
    8.8726    9.3460   -8.2669 O   0  0
   10.6732   10.1784   -5.5022 C   0  0
   10.9713   11.6766   -5.5083 C   0  0
   12.2933   12.1034   -5.4650 C   0  0
    9.9486   12.6217   -5.5365 C   0  0
   12.5926   13.4612   -5.4583 C   0  0
   10.2448   13.9802   -5.5296 C   0  0
   11.5683   14.4012   -5.4905 C   0  0
    8.8719    7.8980   -6.7178 H   0  0
    8.4881   10.3644   -5.4250 H   0  0
   10.7797    9.8108   -4.4817 H   0  0
   11.3987    9.6808   -6.1458 H   0  0
   13.0993   11.3701   -5.4361 H   0  0
    8.9093   12.2942   -5.5641 H   0  0
   13.6316   13.7893   -5.4278 H   0  0
    9.4394   14.7143   -5.5548 H   0  0
   11.8031   15.4656   -5.4852 H   0  0
    9.2115   11.4659   -7.8836 N   0  0
    9.0991   11.9333   -9.2578 C   0  0
    9.2894   13.4470   -9.3919 C   0  0
    9.5001   14.0645   -8.4063 O   0  0
    9.4083   12.2968   -7.2388 H   0  0
    9.8591   11.4331   -9.8580 H   0  0
    8.1094   11.6731   -9.6333 H   0  0
    9.2210   14.0512  -10.5691 N   0  0
    9.3882   15.4794  -10.7964 C   0  0  2  0  0  0
    9.2522   15.8700  -12.2710 C   0  0
    9.0260   14.9736  -13.0822 O   0  0
   10.8054   15.8029  -10.2713 C   0  0
   11.7413   15.0592  -11.0364 O   0  0
    9.3767   17.0586  -12.5623 O   0  0
    9.0336   13.5607  -11.5014 H   0  0
    8.6517   16.0272  -10.2084 H   0  0
   11.0046   16.8690  -10.3795 H   0  0
   10.8825   15.5231   -9.2207 H   0  0
   11.5431   14.0334  -10.9319 H   0  0
  1  2  1  0  0  0
  2  3  1  0  0  0
  3  4  2  0  0  0
  2  5  1  0  0  0
  5  6  1  0  0  0
  5  7  1  0  0  0
  6  8  1  0  0  0
  2  9  1  0  0  0
  5 10  1  0  0  0
  6 11  1  0  0  0
  6 12  1  0  0  0
  7 13  1  0  0  0
  7 14  1  0  0  0
  7 15  1  0  0  0
  8 16  1  0  0  0
  8 17  1  0  0  0
  8 18  1  0  0  0
  1 19  1  0  0  0
  1 20  1  0  0  0
  1 21  1  0  0  0
 22 23  1  0  0  0
 23 24  1  0  0  0
 24 25  2  0  0  0
 23 26  1  0  0  0
 26 27  1  0  0  0
 26 28  1  0  0  0
 27 29  1  0  0  0
 23 31  1  0  0  0
 26 32  1  0  0  0
 27 33  1  0  0  0
 27 34  1  0  0  0
 28 35  1  0  0  0
 28 36  1  0  0  0
 28 37  1  0  0  0
 29 38  1  0  0  0
 29 39  1  0  0  0
 29 40  1  0  0  0
 22 30  1  0  0  0
 41 42  1  0  0  0
 42 43  1  0  0  0
 43 44  2  0  0  0
 42 45  1  0  0  0
 45 46  1  0  0  0
 46 47  1  0  0  0
 46 48  2  0  0  0
 47 49  1  0  0  0
 48 50  1  0  0  0
 49 50  2  0  0  0
 42 52  1  0  0  0
 45 53  1  0  0  0
 45 54  1  0  0  0
 47 55  1  0  0  0
 48 56  1  0  0  0
 49 57  1  0  0  0
 41 51  1  0  0  0
 58 59  1  0  0  0
 59 60  1  0  0  0
 60 61  2  0  0  0
 59 62  1  0  0  0
 62 63  1  0  0  0
 63 64  4  0  0  0
 63 65  4  0  0  0
 64 66  4  0  0  0
 65 67  4  0  0  0
 66 68  4  0  0  0
 67 68  4  0  0  0
 59 70  1  0  0  0
 62 71  1  0  0  0
 62 72  1  0  0  0
 64 73  1  0  0  0
 65 74  1  0  0  0
 66 75  1  0  0  0
 67 76  1  0  0  0
 68 77  1  0  0  0
 58 69  1  0  0  0
 78 79  1  0  0  0
 79 80  1  0  0  0
 80 81  2  0  0  0
 79 83  1  0  0  0
 79 84  1  0  0  0
 78 82  1  0  0  0
 85 86  1  0  0  0
 86 87  1  0  0  0
 87 88  4  0  0  0
 86 89  1  0  0  0
 89 90  1  0  0  0
 86 93  1  0  0  0
 89 94  1  0  0  0
 89 95  1  0  0  0
 90 96  1  0  0  0
 85 92  1  0  0  0
 87 91  4  0  0  0
  3 22  1  0  0  0
 24 41  1  0  0  0
 43 58  1  0  0  0
 60 78  1  0  0  0
 80 85  1  0  0  0
M  CHG  1   1   1
M  END
> <Atoms with fractional formal charges>
88 -1/2
91 -1/2

$$$$
